src/test/resources/matpower/case3120sp.txt
 13/05/91 CYME INTERNATIONAL    100.0 1991 S IEEE 300-BUS TEST SYSTEM
BUS DATA FOLLOWS                   3120 ITEMS
   1 bus-1   220   1  1  0 1.0000   0.00     0.00      0.00    0.00    0.00  220.00 1.0000    0.00    0.00  0.0000  0.0000    0
   2 bus-2   220   1  1  0 1.0000   0.00     0.00      0.00    0.00    0.00  220.00 1.0000    0.00    0.00  0.0000  0.0000    0
   3 bus-3   220   1  1  0 1.0000   0.00     0.00      0.00    0.00    0.00  220.00 1.0000    0.00    0.00  0.0000  0.0000    0
   4 bus-4   220   1  1  0 1.0000   0.00     0.00      0.00    0.00    0.00  220.00 1.0000    0.00    0.00  0.0000  0.0000    0
   5 bus-5   220   1  1  0 1.0000   0.00     0.00      0.00    0.00    0.00  220.00 1.0000    0.00    0.00  0.0000  0.0000    0
   6 bus-6   220   1  1  0 1.0000   0.00     0.00      0.00    0.00    0.00  220.00 1.0000    0.00    0.00  0.0000  0.0000    0
   7 bus-7   220   1  1  0 1.0000   0.00     0.00      0.00    0.00    0.00  220.00 1.0000    0.00    0.00  0.0000  0.0000    0
   8 bus-8   220   1  1  0 1.0000   0.00     0.00      0.00    0.00    0.00  220.00 1.0000    0.00    0.00  0.0000  0.0000    0
   9 bus-9   220   1  1  0 1.0000   0.00     0.00      0.00    0.00    0.00  220.00 1.0000    0.00    0.00  0.0000  0.0000    0
  10 bus-10  220   1  1  0 1.0000   0.00     0.00      0.00    0.00    0.00  220.00 1.0000    0.00    0.00  0.0000  0.0000    0
  11 bus-11  400   1  1  0 1.0000   0.00     0.00      0.00    0.00    0.00  400.00 1.0000    0.00    0.00  0.0000  0.0000    0
  12 bus-12  400   1  1  0 1.0000   0.00     0.00      0.00    0.00    0.00  400.00 1.0000    0.00    0.00  0.0000  0.0000    0
  13 bus-13  400   1  1  0 1.0000   0.00     0.00      0.00    0.00    0.00  400.00 1.0000    0.00    0.00  0.0000  0.0000    0
  14 bus-14  220   1  1  0 1.0000   0.00     0.00      0.00    0.00    0.00  220.00 1.0000    0.00    0.00  0.0000  0.0000    0
  15 bus-15  220   1  1  0 1.0000   0.00     0.00      0.00    0.00    0.00  220.00 1.0000    0.00    0.00  0.0000  0.0000    0
  16 bus-16  220   1  1  0 1.0000   0.00     0.00      0.00    0.00    0.00  220.00 1.0000    0.00    0.00  0.0000  0.0000    0
  17 bus-17  220   1  1  0 1.0000   0.00     0.00      0.00    0.00    0.00  220.00 1.0000    0.00    0.00  0.0000  0.0000    0
  18 bus-18  400   1  1  0 1.0000   0.00     0.00      0.00    0.00    0.00  400.00 1.0000    0.00    0.00  0.0000  0.0000    0
  19 bus-19  400   1  1  0 1.0000   0.00     0.00      0.00    0.00    0.00  400.00 1.0000    0.00    0.00  0.0000  0.0000    0
  20 bus-20  400   1  1  0 1.0000   0.00     0.00      0.00    0.00    0.00  400.00 1.0000    0.00    0.00  0.0000  0.0000    0
  21 bus-21  400   1  1  0 1.0000   0.00     0.00      0.00    0.00    0.00  400.00 1.0000    0.00    0.00  0.0000  0.0000    0
  22 bus-22  220   1  1  2 1.0000   0.00    10.00     20.00  180.00   22.85  220.00 1.0682  162.00  -61.00  0.0000  0.0000    0
  23 bus-23  220   1  1  2 1.0000   0.00    10.00     20.00  180.00   35.93  220.00 1.0682  140.00  -25.00  0.0000  0.0000    0
  24 bus-24  220   1  1  0 1.0000   0.00     0.00      0.00    0.00    0.00  220.00 1.0000    0.00    0.00  0.0000  0.0000    0
  25 bus-25  220   1  1  0 1.0000   0.00     0.00      0.00    0.00    0.00  220.00 1.0000    0.00    0.00  0.0000  0.0000    0
  26 bus-26  220   1  1  0 1.0000   0.00     0.00      0.00    0.00    0.00  220.00 1.0000    0.00    0.00  0.0000  0.0000    0
  27 bus-27  220   1  1  0 1.0000   0.00     0.00      0.00    0.00    0.00  220.00 1.0000    0.00    0.00  0.0000  0.0000    0
  28 bus-28  220   1  1  0 1.0000   0.00     0.00      0.00    0.00    0.00  220.00 1.0000    0.00    0.00  0.0000  0.0000    0
  29 bus-29  220   1  1  0 1.0000   0.00     0.00      0.00    0.00    0.00  220.00 1.0000    0.00    0.00  0.0000  0.0000    0
  30 bus-30  220   1  1  0 1.0000   0.00     0.00      0.00    0.00    0.00  220.00 1.0000    0.00    0.00  0.0000  0.0000    0
  31 bus-31  220   1  1  0 1.0000   0.00     0.00      0.00    0.00    0.00  220.00 1.0000    0.00    0.00  0.0000  0.0000    0
  32 bus-32  400   1  1  0 1.0000   0.00     0.00      0.00    0.00    0.00  400.00 1.0000    0.00    0.00  0.0000  0.0000    0
  33 bus-33  400   1  1  0 1.0000   0.00     0.00      0.00    0.00    0.00  400.00 1.0000    0.00    0.00  0.0000  0.0000    0
  34 bus-34  400   1  1  0 1.0000   0.00     0.00      0.00    0.00    0.00  400.00 1.0000    0.00    0.00  0.0000  0.0000    0
  35 bus-35  220   1  1  2 1.0000   0.00    32.16     52.07  345.00  147.04  220.00 1.0955  570.00  -57.00  0.0000  0.0000    0
  36 bus-36  220   1  1  2 1.0000   0.00    46.36     92.07  690.00  170.60  220.00 1.0955  380.00  -38.00  0.0000  0.0000    0
  37 bus-37  400   1  1  3 1.0000   0.00    60.00    120.00 1050.00  104.76  400.00 1.0400  570.00  -57.00  0.0000  0.0000    0
  38 bus-38  400   1  1  2 1.0000   0.00    60.00    120.00 1050.00   89.52  400.00 1.0400  570.00  -57.00  0.0000  0.0000    0
  39 bus-39  220   1  1  0 1.0000   0.00     0.00      0.00    0.00    0.00  220.00 1.0000    0.00    0.00  0.0000  0.0000    0
  40 bus-40  220   1  1  0 1.0000   0.00     0.00      0.00    0.00    0.00  220.00 1.0000    0.00    0.00  0.0000  0.0000    0
  41 bus-41  400   1  1  0 1.0000   0.00     0.00      0.00    0.00    0.00  400.00 1.0000    0.00    0.00  0.0000  0.0000    0
  42 bus-42  400   1  1  0 1.0000   0.00     0.00      0.00    0.00    0.00  400.00 1.0000    0.00    0.00  0.0000  0.0000    0
  43 bus-43  220   1  1  0 1.0000   0.00     0.00      0.00    0.00    0.00  220.00 1.0000    0.00    0.00  0.0000  0.0000    0
  44 bus-44  400   1  1  0 1.0000   0.00     0.00      0.00    0.00    0.00  400.00 1.0000    0.00    0.00  0.0000  0.0000    0
  45 bus-45  220   1  1  0 1.0000   0.00     0.00      0.00    0.00    0.00  220.00 1.0000    0.00    0.00  0.0000  0.0000    0
  46 bus-46  220   1  1  0 1.0000   0.00     0.00      0.00    0.00    0.00  220.00 1.0000    0.00    0.00  0.0000  0.0000    0
  47 bus-47  220   1  2  0 1.0000   0.00     0.00      0.00    0.00    0.00  220.00 1.0000    0.00    0.00  0.0000  0.0000    0
  48 bus-48  220   1  2  0 1.0000   0.00     0.00      0.00    0.00    0.00  220.00 1.0000    0.00    0.00  0.0000  0.0000    0
  49 bus-49  220   1  2  0 1.0000   0.00     0.00      0.00    0.00    0.00  220.00 1.0000    0.00    0.00  0.0000  0.0000    0
  50 bus-50  220   1  2  0 1.0000   0.00     0.00      0.00    0.00    0.00  220.00 1.0000    0.00    0.00  0.0000  0.0000    0
  51 bus-51  220   1  2  0 1.0000   0.00     0.00      0.00    0.00    0.00  220.00 1.0000    0.00    0.00  0.0000  0.0000    0
  52 bus-52  220   1  2  0 1.0000   0.00     3.97      1.00    0.00    0.00  220.00 1.0000    0.00    0.00  0.0000  0.0000    0
  53 bus-53  220   1  2  0 1.0000   0.00     0.00      0.00    0.00    0.00  220.00 1.0000    0.00    0.00  0.0000  0.0000    0
  54 bus-54  400   1  2  0 1.0000   0.00     0.00      0.00    0.00    0.00  400.00 1.0000    0.00    0.00  0.0000  0.0000    0
  55 bus-55  220   1  2  2 1.0000   0.00    13.00     30.00  205.00   86.71  220.00 1.0909  304.00  -66.00  0.0000  0.0000    0
  56 bus-56  220   1  2  2 1.0000   0.00    39.35     90.07  205.00   87.71  220.00 1.0909  298.00  -66.00  0.0000  0.0000    0
  57 bus-57  220   1  2  2 1.0000   0.00    26.00     60.00  410.00  171.20  220.00 1.0909  298.00  -66.00  0.0000  0.0000    0
  58 bus-58  400   1  2  2 1.0000   0.00    26.00     50.00  330.00  195.71  400.00 1.0350  363.00  -47.00  0.0000  0.0000    0
  59 bus-59  400   1  2  2 1.0000   0.00    26.00     50.00  330.00  122.87  400.00 1.0350  348.00 -100.00  0.0000  0.0000    0
  60 bus-60  220   1  2  0 1.0000   0.00     0.00      0.00    0.00    0.00  220.00 1.0000    0.00    0.00  0.0000  0.0000    0
  61 bus-61  400   1  2  0 1.0000   0.00     0.00      0.00    0.00    0.00  400.00 1.0000    0.00    0.00  0.0000  0.0000    0
  62 bus-62  400   1  2  0 1.0000   0.00     0.00      0.00    0.00    0.00  400.00 1.0000    0.00    0.00  0.0000  0.0000    0
  63 bus-63  400   1  2  0 1.0000   0.00     0.00      0.00    0.00    0.00  400.00 1.0000    0.00    0.00  0.0000  0.0000    0
  64 bus-64  220   1  2  0 1.0000   0.00     0.00      0.00    0.00    0.00  220.00 1.0000    0.00    0.00  0.0000  0.0000    0
  65 bus-65  220   1  2  0 1.0000   0.00     0.00      0.00    0.00    0.00  220.00 1.0000    0.00    0.00  0.0000  0.0000    0
  66 bus-66  400   1  2  0 1.0000   0.00     0.00      0.00    0.00    0.00  400.00 1.0000    0.00    0.00  0.0000  0.0000    0
  67 bus-67  400   1  2  0 1.0000   0.00     0.00      0.00    0.00    0.00  400.00 1.0000    0.00    0.00  0.0000  0.0000    0
  68 bus-68  220   1  2  2 1.0000   0.00    13.00     30.00  210.00  -10.62  220.00 1.0864  120.00  -14.00  0.0000  0.0000    0
  69 bus-69  220   1  2  2 1.0000   0.00    26.00     60.00  420.00  -11.88  220.00 1.0864  219.00  -24.00  0.0000  0.0000    0
  70 bus-70  400   1  2  2 1.0000   0.00     0.00      2.25    0.00    0.00  400.00 1.0325  240.00  -28.00  0.0000  0.0000    0
  71 bus-71  400   1  2  2 1.0000   0.00    26.00     60.00  440.00  -15.62  400.00 1.0325  219.00  -24.00  0.0000  0.0000    0
  72 bus-72  220   1  2  0 1.0000   0.00     0.00      0.00    0.00    0.00  220.00 1.0000    0.00    0.00  0.0000  0.0000    0
  73 bus-73  220   1  2  0 1.0000   0.00     0.00      0.00    0.00    0.00  220.00 1.0000    0.00    0.00  0.0000  0.0000    0
  74 bus-74  220   1  2  0 1.0000   0.00     0.00      0.00    0.00    0.00  220.00 1.0000    0.00    0.00  0.0000  0.0000    0
  75 bus-75  220   1  2  0 1.0000   0.00     0.00      0.00    0.00    0.00  220.00 1.0000    0.00    0.00  0.0000  0.0000    0
  76 bus-76  220   1  2  0 1.0000   0.00     0.00      0.00    0.00    0.00  220.00 1.0000    0.00    0.00  0.0000  0.0000    0
  77 bus-77  220   1  2  0 1.0000   0.00     0.00      0.00    0.00    0.00  220.00 1.0000    0.00    0.00  0.0000  0.0000    0
  78 bus-78  400   1  2  0 1.0000   0.00     0.00      0.00    0.00    0.00  400.00 1.0000    0.00    0.00  0.0000  0.0000    0
  79 bus-79  400   1  2  0 1.0000   0.00     0.00      0.00    0.00    0.00  400.00 1.0000    0.00    0.00  0.0000  0.0000    0
  80 bus-80  220   1  2  0 1.0000   0.00     0.00      0.00    0.00    0.00  220.00 1.0000    0.00    0.00  0.0000  0.0000    0
  81 bus-81  220   1  2  0 1.0000   0.00     0.00      0.00    0.00    0.00  220.00 1.0000    0.00    0.00  0.0000  0.0000    0
  82 bus-82  220   1  2  0 1.0000   0.00     0.00      0.00    0.00    0.00  220.00 1.0000    0.00    0.00  0.0000  0.0000    0
  83 bus-83  220   1  3  0 1.0000   0.00     0.00      0.00    0.00    0.00  220.00 1.0000    0.00    0.00  0.0000  0.0000    0
  84 bus-84  220   1  3  0 1.0000   0.00     6.41      2.01    0.00    0.00  220.00 1.0000    0.00    0.00  0.0000  0.0000    0
  85 bus-85  220   1  3  0 1.0000   0.00    13.89      5.02    0.00    0.00  220.00 1.0000    0.00    0.00  0.0000  0.0000    0
  86 bus-86  220   1  3  0 1.0000   0.00     0.00      0.00    0.00    0.00  220.00 1.0000    0.00    0.00  0.0000  0.0000    0
  87 bus-87  220   1  3  0 1.0000   0.00     0.00      0.00    0.00    0.00  220.00 1.0000    0.00    0.00  0.0000  0.0000    0
  88 bus-88  220   1  3  0 1.0000   0.00     0.00      0.00    0.00    0.00  220.00 1.0000    0.00    0.00  0.0000  0.0000    0
  89 bus-89  220   1  3  0 1.0000   0.00     0.00      0.00    0.00    0.00  220.00 1.0000    0.00    0.00  0.0000  0.0000    0
  90 bus-90  220   1  3  0 1.0000   0.00     0.00      0.00    0.00    0.00  220.00 1.0000    0.00    0.00  0.0000  0.0000    0
  91 bus-91  220   1  3  0 1.0000   0.00     0.00      0.00    0.00    0.00  220.00 1.0000    0.00    0.00  0.0000  0.0000    0
  92 bus-92  220   1  3  2 1.0000   0.00    28.00     70.00  430.00  265.35  220.00 1.0818  265.00  -13.00  0.0000  0.0000    0
  93 bus-93  220   1  3  2 1.0000   0.00    28.00     68.00  430.00  262.94  220.00 1.0818  393.00  -18.00  0.0000  0.0000    0
  94 bus-94  220   1  3  0 1.0000   0.00     2.78      1.91    0.00    0.00  220.00 1.0000    0.00    0.00  0.0000  0.0000    0
  95 bus-95  220   1  3  0 1.0000   0.00     0.00      0.00    0.00    0.00  220.00 1.0000    0.00    0.00  0.0000  0.0000    0
  96 bus-96  400   1  3  2 1.0000   0.00    32.00    142.00  740.00   72.70  400.00 1.0375  425.00  -61.00  0.0000  0.0000    0
  97 bus-97  400   1  3  0 1.0000   0.00     0.00      0.00    0.00    0.00  400.00 1.0000    0.00    0.00  0.0000  0.0000    0
  98 bus-98  220   1  3  0 1.0000   0.00     0.00      0.00    0.00    0.00  220.00 1.0000    0.00    0.00  0.0000  0.0000    0
  99 bus-99  220   1  3  0 1.0000   0.00     0.00      0.00    0.00    0.00  220.00 1.0000    0.00    0.00  0.0000  0.0000    0
 100 bus-100 220   1  3  0 1.0000   0.00     0.00      0.00    0.00    0.00  220.00 1.0000    0.00    0.00  0.0000  0.0000    0
 101 bus-101 220   1  3  0 1.0000   0.00    38.80     -2.70    0.00    0.00  220.00 1.0000    0.00    0.00  0.0000  0.0000    0
 102 bus-102 220   1  3  0 1.0000   0.00     0.00      0.00    0.00    0.00  220.00 1.0000    0.00    0.00  0.0000  0.0000    0
 103 bus-103 220   1  3  0 1.0000   0.00     0.00      0.00    0.00    0.00  220.00 1.0000    0.00    0.00  0.0000  0.0000    0
 104 bus-104 220   1  3  0 1.0000   0.00     0.00      0.00    0.00    0.00  220.00 1.0000    0.00    0.00  0.0000  0.0000    0
 105 bus-105 220   1  3  0 1.0000   0.00     0.00      0.00    0.00    0.00  220.00 1.0000    0.00    0.00  0.0000  0.0000    0
 106 bus-106 220   1  3  0 1.0000   0.00     0.00      0.00    0.00    0.00  220.00 1.0000    0.00    0.00  0.0000  0.0000    0
 107 bus-107 400   1  3  0 1.0000   0.00     0.00      0.00    0.00    0.00  400.00 1.0000    0.00    0.00  0.0000  0.0000    0
 108 bus-108 400   1  3  0 1.0000   0.00     0.00      0.00    0.00    0.00  400.00 1.0000    0.00    0.00  0.0000  0.0000    0
 109 bus-109 220   1  3  0 1.0000   0.00     0.00      0.00    0.00    0.00  220.00 1.0000    0.00    0.00  0.0000  0.0000    0
 110 bus-110 220   1  3  0 1.0000   0.00     0.00      0.00    0.00    0.00  220.00 1.0000    0.00    0.00  0.0000  0.0000    0
 111 bus-111 220   1  3  0 1.0000   0.00     0.00      0.00    0.00    0.00  220.00 1.0000    0.00    0.00  0.0000  0.0000    0
 112 bus-112 220   1  3  0 1.0000   0.00     0.00      0.00    0.00    0.00  220.00 1.0000    0.00    0.00  0.0000  0.0000    0
 113 bus-113 220   1  3  2 1.0000   0.00    38.41     12.71   19.00    1.09  220.00 1.0773    0.00    0.00  0.0000  0.0000    0
 114 bus-114 220   1  3  0 1.0000   0.00     0.00      0.00    0.00    0.00  220.00 1.0000    0.00    0.00  0.0000  0.0000    0
 115 bus-115 220   1  3  0 1.0000   0.00     0.00      0.00    0.00    0.00  220.00 1.0000    0.00    0.00  0.0000  0.0000    0
 116 bus-116 220   1  3  0 1.0000   0.00     0.00      0.00    0.00    0.00  220.00 1.0000    0.00    0.00  0.0000  0.0000    0
 117 bus-117 220   1  3  0 1.0000   0.00     0.00      0.00    0.00    0.00  220.00 1.0000    0.00    0.00  0.0000  0.0000    0
 118 bus-118 220   1  3  0 1.0000   0.00     0.00      0.00    0.00    0.00  220.00 1.0000    0.00    0.00  0.0000  0.0000    0
 119 bus-119 220   1  3  2 1.0000   0.00    10.00     44.00  215.00   89.14  220.00 1.0818  120.00  -10.00  0.0000  0.0000    0
 120 bus-120 220   1  3  2 1.0000   0.00    10.00     44.00  215.00   92.04  220.00 1.0818  120.00  -10.00  0.0000  0.0000    0
 121 bus-121 220   1  3  2 1.0000   0.00     7.00     18.00  115.00   52.14  220.00 1.0818   73.00   -1.00  0.0000  0.0000    0
 122 bus-122 220   1  3  2 1.0000   0.00     8.00     21.00  115.00   52.70  220.00 1.0818   73.00   -1.00  0.0000  0.0000    0
 123 bus-123 220   1  3  0 1.0000   0.00     0.00      0.00    0.00    0.00  220.00 1.0000    0.00    0.00  0.0000  0.0000    0
 124 bus-124 220   1  3  0 1.0000   0.00    59.40     11.61    0.00    0.00  220.00 1.0000    0.00    0.00  0.0000  0.0000    0
 125 bus-125 220   1  3  0 1.0000   0.00     0.00      0.00    0.00    0.00  220.00 1.0000    0.00    0.00  0.0000  0.0000    0
 126 bus-126 220   1  3  0 1.0000   0.00     0.00      0.00    0.00    0.00  220.00 1.0000    0.00    0.00  0.0000  0.0000    0
 127 bus-127 220   1  3  0 1.0000   0.00     0.00      0.00    0.00    0.00  220.00 1.0000    0.00    0.00  0.0000  0.0000    0
 128 bus-128 220   1  3  0 1.0000   0.00     0.00      0.00    0.00    0.00  220.00 1.0000    0.00    0.00  0.0000  0.0000    0
 129 bus-129 220   1  3  0 1.0000   0.00     0.00      0.00    0.00    0.00  220.00 1.0000    0.00    0.00  0.0000  0.0000    0
 130 bus-130 400   1  3  0 1.0000   0.00     0.00      0.00    0.00    0.00  400.00 1.0000    0.00    0.00  0.0000  0.0000    0
 131 bus-131 400   1  3  0 1.0000   0.00     0.00      0.00    0.00    0.00  400.00 1.0000    0.00    0.00  0.0000  0.0000    0
 132 bus-132 220   1  3  2 1.0000   0.00     0.00      1.78    0.00    0.00  220.00 1.0773   79.00    0.00  0.0000  0.0000    0
 133 bus-133 220   1  3  2 1.0000   0.00     9.00     20.00  115.00   68.61  220.00 1.0773   79.00    0.00  0.0000  0.0000    0
 134 bus-134 220   1  3  2 1.0000   0.00     6.00     15.00  105.00   28.62  220.00 1.0727   31.00    0.00  0.0000  0.0000    0
 135 bus-135 220   1  3  0 1.0000   0.00     0.00      0.00    0.00    0.00  220.00 1.0000    0.00    0.00  0.0000  0.0000    0
 136 bus-136 400   1  3  0 1.0000   0.00     0.00      0.00    0.00    0.00  400.00 1.0000    0.00    0.00  0.0000  0.0000    0
 137 bus-137 400   1  3  0 1.0000   0.00     0.00      0.00    0.00    0.00  400.00 1.0000    0.00    0.00  0.0000  0.0000    0
 138 bus-138 400   1  3  0 1.0000   0.00     0.00      0.00    0.00    0.00  400.00 1.0000    0.00    0.00  0.0000  0.0000    0
 139 bus-139 400   1  3  0 1.0000   0.00     0.00      0.00    0.00    0.00  400.00 1.0000    0.00    0.00  0.0000  0.0000    0
 140 bus-140 220   1  3  0 1.0000   0.00     0.00      0.00    0.00    0.00  220.00 1.0000    0.00    0.00  0.0000  0.0000    0
 141 bus-141 220   1  3  0 1.0000   0.00     0.00      0.00    0.00    0.00  220.00 1.0000    0.00    0.00  0.0000  0.0000    0
 142 bus-142 220   1  3  2 1.0000   0.00    18.20     37.21  205.00   68.73  220.00 1.0818  135.00  -35.00  0.0000  0.0000    0
 143 bus-143 220   1  3  2 1.0000   0.00    41.52     73.01  420.00  149.88  220.00 1.0818  275.00  -70.00  0.0000  0.0000    0
 144 bus-144 400   1  3  2 1.0000   0.00    28.00     66.00  430.00   -5.60  400.00 1.0375  277.00  -72.00  0.0000  0.0000    0
 145 bus-145 400   1  3  0 1.0000   0.00     0.00      0.00    0.00    0.00  400.00 1.0000    0.00    0.00  0.0000  0.0000    0
 146 bus-146 220   1  3  0 1.0000   0.00     0.00      0.00    0.00    0.00  220.00 1.0000    0.00    0.00  0.0000  0.0000    0
 147 bus-147 220   1  3  0 1.0000   0.00     0.00      0.00    0.00    0.00  220.00 1.0000    0.00    0.00  0.0000  0.0000    0
 148 bus-148 220   1  3  0 1.0000   0.00     0.00      0.00    0.00    0.00  220.00 1.0000    0.00    0.00  0.0000  0.0000    0
 149 bus-149 220   1  3  0 1.0000   0.00     0.00      0.00    0.00    0.00  220.00 1.0000    0.00    0.00  0.0000  0.0000    0
 150 bus-150 220   1  3  2 1.0000   0.00     0.00     -0.79    0.00    0.00  220.00 1.0409  144.00  -58.00  0.0000  0.0000    0
 151 bus-151 220   1  3  2 1.0000   0.00     0.00     -0.79    0.00    0.00  220.00 1.0409  144.00  -58.00  0.0000  0.0000    0
 152 bus-152 220   1  4  2 1.0000   0.00     7.70     20.00  110.00   95.35  220.00 1.0682  170.00  -30.00  0.0000  0.0000    0
 153 bus-153 220   1  4  2 1.0000   0.00     7.80     20.00  110.00   90.77  220.00 1.0682   85.00  -15.00  0.0000  0.0000    0
 154 bus-154 220   1  4  0 1.0000   0.00     0.00      0.00    0.00    0.00  220.00 1.0000    0.00    0.00  0.0000  0.0000    0
 155 bus-155 220   1  4  0 1.0000   0.00     0.00      0.00    0.00    0.00  220.00 1.0000    0.00    0.00  0.0000  0.0000    0
 156 bus-156 220   1  4  0 1.0000   0.00     0.00      0.00    0.00    0.00  220.00 1.0000    0.00    0.00  0.0000  0.0000    0
 157 bus-157 220   1  4  0 1.0000   0.00     0.00      0.00    0.00    0.00  220.00 1.0000    0.00    0.00  0.0000  0.0000    0
 158 bus-158 220   1  4  0 1.0000   0.00     0.00      0.00    0.00    0.00  220.00 1.0000    0.00    0.00  0.0000  0.0000    0
 159 bus-159 400   1  4  0 1.0000   0.00     0.00      0.00    0.00    0.00  400.00 1.0000    0.00    0.00  0.0000  0.0000    0
 160 bus-160 400   1  4  0 1.0000   0.00     0.00      0.00    0.00    0.00  400.00 1.0000    0.00    0.00  0.0000  0.0000    0
 161 bus-161 220   1  4  0 1.0000   0.00     0.00      0.00    0.00    0.00  220.00 1.0000    0.00    0.00  0.0000  0.0000    0
 162 bus-162 220   1  4  0 1.0000   0.00     0.00      0.00    0.00    0.00  220.00 1.0000    0.00    0.00  0.0000  0.0000    0
 163 bus-163 220   1  4  0 1.0000   0.00     0.00      0.00    0.00    0.00  220.00 1.0000    0.00    0.00  0.0000  0.0000    0
 164 bus-164 220   1  4  0 1.0000   0.00     0.00      0.00    0.00    0.00  220.00 1.0000    0.00    0.00  0.0000  0.0000    0
 165 bus-165 220   1  4  0 1.0000   0.00     0.00      0.00    0.00    0.00  220.00 1.0000    0.00    0.00  0.0000  0.0000    0
 166 bus-166 220   1  4  0 1.0000   0.00     0.00      0.00    0.00    0.00  220.00 1.0000    0.00    0.00  0.0000  0.0000    0
 167 bus-167 220   1  4  2 1.0000   0.00     0.00    -13.01    0.00    0.00  220.00 1.0500   12.00    0.00  0.0000  0.0000    0
 168 bus-168 220   1  4  0 1.0000   0.00     0.00      0.00    0.00    0.00  220.00 1.0000    0.00    0.00  0.0000  0.0000    0
 169 bus-169 220   1  4  2 1.0000   0.00    12.00     30.00  180.00   81.36  220.00 1.0818  111.00  -21.00  0.0000  0.0000    0
 170 bus-170 220   1  4  2 1.0000   0.00    19.91     36.57  180.00   62.03  220.00 1.0818  332.00  -67.00  0.0000  0.0000    0
 171 bus-171 400   1  4  2 1.0000   0.00    12.00     30.00  200.00   94.05  400.00 1.0325  102.00  -15.00  0.0000  0.0000    0
 172 bus-172 400   1  4  2 1.0000   0.00    12.00     30.00  200.00   91.80  400.00 1.0325  195.00  -25.00  0.0000  0.0000    0
 173 bus-173 220   1  4  0 1.0000   0.00     0.00      0.00    0.00    0.00  220.00 1.0000    0.00    0.00  0.0000  0.0000    0
 174 bus-174 220   1  4  0 1.0000   0.00     0.00      0.00    0.00    0.00  220.00 1.0000    0.00    0.00  0.0000  0.0000    0
 175 bus-175 220   1  4  0 1.0000   0.00     0.00      0.00    0.00    0.00  220.00 1.0000    0.00    0.00  0.0000  0.0000    0
 176 bus-176 220   1  4  0 1.0000   0.00     0.00      0.00    0.00    0.00  220.00 1.0000    0.00    0.00  0.0000  0.0000    0
 177 bus-177 220   1  4  2 1.0000   0.00    30.50     64.20  450.00  230.22  220.00 1.0909  272.00  -73.00  0.0000  0.0000    0
 178 bus-178 220   1  4  2 1.0000   0.00    58.90     96.00  675.00  348.00  220.00 1.0909  502.00 -125.00  0.0000  0.0000    0
 179 bus-179 220   1  4  0 1.0000   0.00     0.00      0.00    0.00    0.00  220.00 1.0000    0.00    0.00  0.0000  0.0000    0
 180 bus-180 400   1  4  2 1.0000   0.00    26.50     64.20  400.00  201.00  400.00 1.0300  206.00  -34.00  0.0000  0.0000    0
 181 bus-181 400   1  4  0 1.0000   0.00     0.00      0.00    0.00    0.00  400.00 1.0000    0.00    0.00  0.0000  0.0000    0
 182 bus-182 220   1  4  0 1.0000   0.00     0.00      0.00    0.00    0.00  220.00 1.0000    0.00    0.00  0.0000  0.0000    0
 183 bus-183 220   1  4  0 1.0000   0.00     0.00      0.00    0.00    0.00  220.00 1.0000    0.00    0.00  0.0000  0.0000    0
 184 bus-184 400   1  4  0 1.0000   0.00     0.00      0.00    0.00    0.00  400.00 1.0000    0.00    0.00  0.0000  0.0000    0
 185 bus-185 400   1  4  0 1.0000   0.00     0.00      0.00    0.00    0.00  400.00 1.0000    0.00    0.00  0.0000  0.0000    0
 186 bus-186 400   1  4  0 1.0000   0.00     0.00      0.00    0.00    0.00  400.00 1.0000    0.00    0.00  0.0000  0.0000    0
 187 bus-187 400   1  4  0 1.0000   0.00     0.00      0.00    0.00    0.00  400.00 1.0000    0.00    0.00  0.0000  0.0000    0
 188 bus-188 220   1  4  2 1.0000   0.00    12.00     30.00  180.00  111.49  220.00 1.0546  112.00  -32.00  0.0000  0.0000    0
 189 bus-189 220   1  4  2 1.0000   0.00    23.80     60.00  360.00  224.36  220.00 1.0546  336.00  -96.00  0.0000  0.0000    0
 190 bus-190 400   1  4  2 1.0000   0.00    38.00     64.00  400.00  255.32  400.00 1.0050  294.00 -259.00  0.0000  0.0000    0
 191 bus-191 220   1  4  0 1.0000   0.00     0.00      0.00    0.00    0.00  220.00 1.0000    0.00    0.00  0.0000  0.0000    0
 192 bus-192 220   1  4  0 1.0000   0.00     0.00      0.00    0.00    0.00  220.00 1.0000    0.00    0.00  0.0000  0.0000    0
 193 bus-193 220   1  4  0 1.0000   0.00     0.00      0.00    0.00    0.00  220.00 1.0000    0.00    0.00  0.0000  0.0000    0
 194 bus-194 220   1  4  0 1.0000   0.00     0.00      0.00    0.00    0.00  220.00 1.0000    0.00    0.00  0.0000  0.0000    0
 195 bus-195 220   1  4  0 1.0000   0.00     0.00      0.00    0.00    0.00  220.00 1.0000    0.00    0.00  0.0000  0.0000    0
 196 bus-196 220   1  4  0 1.0000   0.00     0.00      0.00    0.00    0.00  220.00 1.0000    0.00    0.00  0.0000  0.0000    0
 197 bus-197 400   1  4  0 1.0000   0.00     0.00      0.00    0.00    0.00  400.00 1.0000    0.00    0.00  0.0000  0.0000    0
 198 bus-198 220   1  4  0 1.0000   0.00     0.00      0.00    0.00    0.00  220.00 1.0000    0.00    0.00  0.0000  0.0000    0
 199 bus-199 220   1  4  0 1.0000   0.00     0.00      0.00    0.00    0.00  220.00 1.0000    0.00    0.00  0.0000  0.0000    0
 200 bus-200 220   1  4  0 1.0000   0.00     0.00      0.00    0.00    0.00  220.00 1.0000    0.00    0.00  0.0000  0.0000    0
...
-999
BRANCH DATA FOLLOWS                   3693 ITEMS
   9   11  1  1 1 1  0.000640  0.030500   0.00000   400   400   400    0 0  1.0927    0.00      0      0      0       0      0
  13   12  1  1 1 1  0.000690  0.039460   0.00000   250   250   250    0 0  0.9999    0.00      0      0      0       0      0
  20   18  1  1 1 1  0.000880  0.057090   0.00000   330   330   330    0 0  0.9999    0.00      0      0      0       0      0
  34   33  1  1 1 1  0.000700  0.036520   0.00000   250   250   250    0 0  0.9999    0.00      0      0      0       0      0
  35   37  1  1 1 1  0.000360  0.025190   0.00000   500   500   500    0 0  1.0731    0.00      0      0      0       0      0
  36   38  1  1 1 1  0.000360  0.025190   0.00000   500   500   500    0 0  1.0731    0.00      0      0      0       0      0
  53   54  1  1 1 1  0.000340  0.020970   0.00000   500   500   500    0 0  1.0755    0.00      0      0      0       0      0
  57   59  1  1 1 1  0.000340  0.020970   0.00000   500   500   500    0 0  1.0731    0.00      0      0      0       0      0
  68   70  1  1 1 1  0.000810  0.030000   0.00000   400   400   400    0 0  1.1010    0.00      0      0      0       0      0
 105  107  1  1 1 1  0.000750  0.024450  -0.00832   330   330   330    0 0  1.0390    0.00      0      0      0       0      0
 106  108  1  1 1 1  0.000400  0.025300   0.00000   500   500   500    0 0  1.0457    0.00      0      0      0       0      0
 142  145  1  1 1 1  0.000530  0.028750  -0.01600   400   400   400    0 0  1.0630    0.00      0      0      0       0      0
 170  171  1  1 1 1  0.000640  0.030500   0.00000   400   400   400    0 0  1.0741    0.00      0      0      0       0      0
 177  180  1  1 1 1  0.000230  0.023000   0.00000   500   500   500    0 0  1.0743    0.00      0      0      0       0      0
 178  181  1  1 1 1  0.000230  0.023000   0.00000   500   500   500    0 0  1.0743    0.00      0      0      0       0      0
 185  184  1  1 1 1  0.000320  0.043920   0.00000   330   330   330    0 0  0.9999    0.00      0      0      0       0      0
 188  190  1  1 1 1  0.000300  0.027320   0.00000   500   500   500    0 0  1.1004    0.00      0      0      0       0      0
 195  197  1  1 1 1  0.000350  0.023750   0.00000   500   500   500    0 0  1.0867    0.00      0      0      0       0      0
 208  209  1  1 1 1  0.000510  0.027500   0.00000   400   400   400    0 0  1.0770    0.00      0      0      0       0      0
 213  211  1  1 1 1  0.000840  0.068580   0.00000   250   250   250    0 0  0.9999    0.00      0      0      0       0      0
 216  218  1  1 1 1  0.000330  0.027110   0.00000   500   500   500    0 0  1.0861    0.00      0      0      0       0      0
 220  218  1  1 1 1  0.000320  0.046400   0.00000   330   330   330    0 0  0.9999    0.00      0      0      0       0      0
 227  225  1  1 1 1  0.001130  0.056470   0.00000   330   330   330    0 0  0.9999    0.00      0      0      0       0      0
 224  226  1  1 1 1  0.000750  0.024690  -0.00800   330   330   330    0 0  1.0454    0.00      0      0      0       0      0
 180 3116  1  1 1 0  0.000290  0.003170   0.09184  1386  1386  1386    0 0  0.0000    0.00      0      0      0       0      0
 181 3116  1  1 1 0  0.000300  0.003260   0.09536  1386  1386  1386    0 0  0.0000    0.00      0      0      0       0      0
  82  240  1  1 1 0  0.014750  0.085950   0.13036   339   339   339    0 0  0.0000    0.00      0      0      0       0      0
  90 3114  1  1 1 0  0.012440  0.069590   0.10842   412   412   412    0 0  0.0000    0.00      0      0      0       0      0
 120 3114  1  1 1 0  0.012070  0.069050   0.11519   412   412   412    0 0  0.0000    0.00      0      0      0       0      0
3115  144  1  1 1 0  0.001680  0.016030   0.51488  1206  1206  1206    0 0  0.0000    0.00      0      0      0       0      0
 169 3117  1  1 1 0  0.001800  0.016160   0.04840   436   436   436    0 0  0.0000    0.00      0      0      0       0      0
 170 3117  1  1 1 0  0.001800  0.016160   0.04840   436   436   436    0 0  0.0000    0.00      0      0      0       0      0
  61 3118  1  1 1 0  0.002230  0.022090   0.69011   831   831   831    0 0  0.0000    0.00      0      0      0       0      0
  62 3118  1  1 1 0  0.002230  0.022090   0.69011   831   831   831    0 0  0.0000    0.00      0      0      0       0      0
3113   97  1  1 1 0  0.002930  0.030540   0.95472  1206  1206  1206    0 0  0.0000    0.00      0      0      0       0      0
  28   56  1  1 1 0  0.011740  0.070140   0.12689   339   339   339    0 0  0.0000    0.00      0      0      0       0      0
 105   35  1  1 1 0  0.009190  0.066140   0.10451   375   375   375    0 0  0.0000    0.00      0      0      0       0      0
 106   36  1  1 1 0  0.008220  0.057670   0.09820   400   400   400    0 0  0.0000    0.00      0      0      0       0      0
  39  167  1  1 1 0  0.016980  0.124590   0.19570   231   231   231    0 0  0.0000    0.00      0      0      0       0      0
  46  153  1  1 1 0  0.012980  0.067380   0.10284   250   250   250    0 0  0.0000    0.00      0      0      0       0      0
  25  152  1  1 1 0  0.010680  0.047500   0.09495   339   339   339    0 0  0.0000    0.00      0      0      0       0      0
  26  188  1  1 1 0  0.014360  0.107290   0.16081   231   231   231    0 0  0.0000    0.00      0      0      0       0      0
 124   53  1  1 1 0  0.014880  0.081610   0.11480   266   266   266    0 0  0.0000    0.00      0      0      0       0      0
 106   52  1  1 1 0  0.011160  0.071710   0.10367   267   267   267    0 0  0.0000    0.00      0      0      0       0      0
  98  203  1  1 1 0  0.005520  0.059480   0.17077   317   317   317    0 0  0.0000    0.00      0      0      0       0      0
 189  234  1  1 1 0  0.011180  0.065970   0.10778   267   267   267    0 0  0.0000    0.00      0      0      0       0      0
 188  221  1  1 1 0  0.016820  0.089090   0.12993   295   295   295    0 0  0.0000    0.00      0      0      0       0      0
 189  222  1  1 1 0  0.013840  0.087020   0.13484   295   295   295    0 0  0.0000    0.00      0      0      0       0      0
 192  238  1  1 1 0  0.015170  0.099380   0.14492   197   197   197    0 0  0.0000    0.00      0      0      0       0      0
  14   57  1  1 1 0  0.014570  0.073620   0.13344   356   356   356    0 0  0.0000    0.00      0      0      0       0      0
  23  229  1  1 1 0  0.014030  0.104130   0.15949   231   231   231    0 0  0.0000    0.00      0      0      0       0      0
  68  115  1  1 1 0  0.003740  0.043800   0.10096   476   476   476    0 0  0.0000    0.00      0      0      0       0      0
  97  187  1  1 1 0  0.001940  0.020070   0.54307   970   970   970    0 0  0.0000    0.00      0      0      0       0      0
  12   58  1  1 1 0  0.001500  0.015060   0.40320  1154  1154  1154    0 0  0.0000    0.00      0      0      0       0      0
 171  210  1  1 1 0  0.002960  0.034840   0.92960   838   838   838    0 0  0.0000    0.00      0      0      0       0      0
  70  136  1  1 1 0  0.001690  0.019310   0.53814   866   866   866    0 0  0.0000    0.00      0      0      0       0      0
 108   38  1  1 1 0  0.001370  0.015690   0.43744  1154  1154  1154    0 0  0.0000    0.00      0      0      0       0      0
 139   37  1  1 1 0  0.002340  0.026770   0.74653  1154  1154  1154    0 0  0.0000    0.00      0      0      0       0      0
 218   32  1  1 1 0  0.002170  0.025130   0.67098  1154  1154  1154    0 0  0.0000    0.00      0      0      0       0      0
  78  136  1  1 1 0  0.001520  0.017390   0.48083   866   866   866    0 0  0.0000    0.00      0      0      0       0      0
  78  138  1  1 1 0  0.004680  0.053470   1.48883   831   831   831    0 0  0.0000    0.00      0      0      0       0      0
  41   97  1  1 1 0  0.003550  0.036170   0.95894   717   717   717    0 0  0.0000    0.00      0      0      0       0      0
  41  107  1  1 1 0  0.000970  0.010520   0.28395   970   970   970    0 0  0.0000    0.00      0      0      0       0      0
 137   61  1  1 1 0  0.001440  0.014460   0.51213  1386  1386  1386    0 0  0.0000    0.00      0      0      0       0      0
   6   15  1  1 1 0  0.013000  0.097810   0.14013   375   375   375    0 0  0.0000    0.00      0      0      0       0      0
  15   40  1  1 1 0  0.005250  0.038470   0.06053   231   231   231    0 0  0.0000    0.00      0      0      0       0      0
   6   31  1  1 1 0  0.004570  0.033510   0.05245   317   317   317    0 0  0.0000    0.00      0      0      0       0      0
   9   22  1  1 1 0  0.014690  0.109150   0.16676   317   317   317    0 0  0.0000    0.00      0      0      0       0      0
  14   27  1  1 1 0  0.012620  0.093260   0.14324   231   231   231    0 0  0.0000    0.00      0      0      0       0      0
   7   35  1  1 1 0  0.009240  0.050520   0.07698   295   295   295    0 0  0.0000    0.00      0      0      0       0      0
   3   22  1  1 1 0  0.010680  0.079360   0.12155   231   231   231    0 0  0.0000    0.00      0      0      0       0      0
  25   35  1  1 1 0  0.005850  0.040270   0.07161   400   400   400    0 0  0.0000    0.00      0      0      0       0      0
  24   36  1  1 1 0  0.005850  0.040270   0.07161   400   400   400    0 0  0.0000    0.00      0      0      0       0      0
   8   14  1  1 1 0  0.005580  0.041470   0.06290   231   231   231    0 0  0.0000    0.00      0      0      0       0      0
  15   43  1  1 1 0  0.000890  0.006300   0.01080   231   231   231    0 0  0.0000    0.00      0      0      0       0      0
  15   29  1  1 1 0  0.004420  0.023740   0.04477   339   339   339    0 0  0.0000    0.00      0      0      0       0      0
   7   45  1  1 1 0  0.004940  0.026900   0.04225   250   250   250    0 0  0.0000    0.00      0      0      0       0      0
   6   24  1  1 1 0  0.002870  0.016710   0.02467   295   295   295    0 0  0.0000    0.00      0      0      0       0      0
   1   35  1  1 1 0  0.001200  0.008900   0.01512   461   461   461    0 0  0.0000    0.00      0      0      0       0      0
   2   36  1  1 1 0  0.001200  0.008900   0.01513   461   461   461    0 0  0.0000    0.00      0      0      0       0      0
  30   36  1  1 1 0  0.003990  0.029010   0.04808   380   380   380    0 0  0.0000    0.00      0      0      0       0      0
  12   32  1  1 1 0  0.002980  0.034450   0.94221   831   831   831    0 0  0.0000    0.00      0      0      0       0      0
  32   37  1  1 1 0  0.003580  0.041220   1.13382  1154  1154  1154    0 0  0.0000    0.00      0      0      0       0      0
  38   19  1  1 1 0  0.003420  0.039280   1.08288  1154  1154  1154    0 0  0.0000    0.00      0      0      0       0      0
  21   11  1  1 1 0  0.002860  0.033550   0.90157   838   838   838    0 0  0.0000    0.00      0      0      0       0      0
  21   44  1  1 1 0  0.000230  0.002640   0.07296   838   838   838    0 0  0.0000    0.00      0      0      0       0      0
  19   11  1  1 1 0  0.001100  0.012710   0.35206   838   838   838    0 0  0.0000    0.00      0      0      0       0      0
  38  184  1  1 1 0  0.001390  0.015900   0.44176   838   838   838    0 0  0.0000    0.00      0      0      0       0      0
  72   77  1  1 1 0  0.010540  0.061510   0.09306   197   197   197    0 0  0.0000    0.00      0      0      0       0      0
  69   74  1  1 1 0  0.009050  0.067230   0.10296   231   231   231    0 0  0.0000    0.00      0      0      0       0      0
  47   81  1  1 1 0  0.011400  0.065870   0.09975   274   274   274    0 0  0.0000    0.00      0      0      0       0      0
  47   64  1  1 1 0  0.010700  0.066280   0.10825   287   287   287    0 0  0.0000    0.00      0      0      0       0      0
  55   72  1  1 1 0  0.005430  0.037330   0.06668   341   341   341    0 0  0.0000    0.00      0      0      0       0      0
  57   73  1  1 1 0  0.005430  0.037330   0.06668   341   341   341    0 0  0.0000    0.00      0      0      0       0      0
  47   73  1  1 1 0  0.006570  0.048100   0.07270   319   319   319    0 0  0.0000    0.00      0      0      0       0      0
  65   82  1  1 1 0  0.003020  0.020100   0.03069   339   339   339    0 0  0.0000    0.00      0      0      0       0      0
  51   65  1  1 1 0  0.007000  0.051380   0.08084   231   231   231    0 0  0.0000    0.00      0      0      0       0      0
  68   49  1  1 1 0  0.003290  0.025060   0.04390   317   317   317    0 0  0.0000    0.00      0      0      0       0      0
  48   50  1  1 1 0  0.007890  0.058680   0.08985   231   231   231    0 0  0.0000    0.00      0      0      0       0      0
  50   69  1  1 1 0  0.005580  0.040620   0.06491   341   341   341    0 0  0.0000    0.00      0      0      0       0      0
  49   81  1  1 1 0  0.004520  0.033660   0.05156   341   341   341    0 0  0.0000    0.00      0      0      0       0      0
  80   81  1  1 1 0  0.001340  0.009960   0.01337   287   287   287    0 0  0.0000    0.00      0      0      0       0      0
  55   76  1  1 1 0  0.006180  0.043530   0.07649   341   341   341    0 0  0.0000    0.00      0      0      0       0      0
  56   77  1  1 1 0  0.006180  0.043530   0.07649   266   266   266    0 0  0.0000    0.00      0      0      0       0      0
  52   76  1  1 1 0  0.012190  0.063700   0.09333   266   266   266    0 0  0.0000    0.00      0      0      0       0      0
  53   75  1  1 1 0  0.002460  0.018260   0.02798   231   231   231    0 0  0.0000    0.00      0      0      0       0      0
  52   60  1  1 1 0  0.002420  0.015310   0.02249   287   287   287    0 0  0.0000    0.00      0      0      0       0      0
  59   63  1  1 1 0  0.001700  0.019770   0.53386   838   838   838    0 0  0.0000    0.00      0      0      0       0      0
  67   71  1  1 1 0  0.001160  0.013000   0.33856   838   838   838    0 0  0.0000    0.00      0      0      0       0      0
  70   54  1  1 1 0  0.002180  0.025360   0.68579   838   838   838    0 0  0.0000    0.00      0      0      0       0      0
  71   78  1  1 1 0  0.001050  0.011230   0.28195  1119  1119  1119    0 0  0.0000    0.00      0      0      0       0      0
  79   62  1  1 1 0  0.001190  0.014280   0.36666  1154  1154  1154    0 0  0.0000    0.00      0      0      0       0      0
  58   66  1  1 1 0  0.001840  0.021390   0.57770   838   838   838    0 0  0.0000    0.00      0      0      0       0      0
 142  111  1  1 1 0  0.004880  0.033620   0.05961   341   341   341    0 0  0.0000    0.00      0      0      0       0      0
 122   89  1  1 1 0  0.010930  0.059190   0.08439   180   180   180    0 0  0.0000    0.00      0      0      0       0      0
 109  122  1  1 1 0  0.001940  0.014150   0.02230   341   341   341    0 0  0.0000    0.00      0      0      0       0      0
 148   93  1  1 1 0  0.001920  0.013550   0.02300   341   341   341    0 0  0.0000    0.00      0      0      0       0      0
 100  148  1  1 1 0  0.002380  0.016670   0.02846   341   341   341    0 0  0.0000    0.00      0      0      0       0      0
 147  149  1  1 1 0  0.000660  0.004960   0.00758   319   319   319    0 0  0.0000    0.00      0      0      0       0      0
 149  121  1  1 1 0  0.005370  0.040390   0.06005   319   319   319    0 0  0.0000    0.00      0      0      0       0      0
 149  106  1  1 1 0  0.000830  0.005250   0.00868   250   250   250    0 0  0.0000    0.00      0      0      0       0      0
 135  115  1  1 1 0  0.015890  0.083200   0.11439   266   266   266    0 0  0.0000    0.00      0      0      0       0      0
 128   95  1  1 1 0  0.002170  0.014590   0.02575   197   197   197    0 0  0.0000    0.00      0      0      0       0      0
 116  132  1  1 1 0  0.017730  0.116780   0.16361   250   250   250    0 0  0.0000    0.00      0      0      0       0      0
  88  143  1  1 1 0  0.005930  0.040930   0.07215   341   341   341    0 0  0.0000    0.00      0      0      0       0      0
 105  123  1  1 1 0  0.003900  0.028470   0.04498   317   317   317    0 0  0.0000    0.00      0      0      0       0      0
  93  134  1  1 1 0  0.008160  0.042420   0.06120   314   314   314    0 0  0.0000    0.00      0      0      0       0      0
  92  135  1  1 1 0  0.008160  0.042420   0.06120   314   314   314    0 0  0.0000    0.00      0      0      0       0      0
  90   93  1  1 1 0  0.005190  0.038390   0.05875   400   400   400    0 0  0.0000    0.00      0      0      0       0      0
  87   92  1  1 1 0  0.002130  0.014030   0.02260   250   250   250    0 0  0.0000    0.00      0      0      0       0      0
  92  129  1  1 1 0  0.004630  0.027750   0.04612   267   267   267    0 0  0.0000    0.00      0      0      0       0      0
  86  118  1  1 1 0  0.011220  0.070740   0.11571   180   180   180    0 0  0.0000    0.00      0      0      0       0      0
 133  125  1  1 1 0  0.006010  0.041470   0.07364   308   308   308    0 0  0.0000    0.00      0      0      0       0      0
  83  106  1  1 1 0  0.002070  0.012790   0.02055   197   197   197    0 0  0.0000    0.00      0      0      0       0      0
 105  101  1  1 1 0  0.001360  0.009900   0.01586   400   400   400    0 0  0.0000    0.00      0      0      0       0      0
 102  146  1  1 1 0  0.000580  0.004170   0.00684   341   341   341    0 0  0.0000    0.00      0      0      0       0      0
  90  150  1  1 1 0  0.000850  0.006320   0.00931   457   457   457    0 0  0.0000    0.00      0      0      0       0      0
  91  151  1  1 1 0  0.000850  0.006120   0.00964   457   457   457    0 0  0.0000    0.00      0      0      0       0      0
  91  117  1  1 1 0  0.001590  0.011120   0.01913   396   396   396    0 0  0.0000    0.00      0      0      0       0      0
 119  142  1  1 1 0  0.003140  0.021590   0.03839   341   341   341    0 0  0.0000    0.00      0      0      0       0      0
 126  143  1  1 1 0  0.004550  0.031570   0.05531   231   231   231    0 0  0.0000    0.00      0      0      0       0      0
  99  119  1  1 1 0  0.001450  0.010080   0.01719   231   231   231    0 0  0.0000    0.00      0      0      0       0      0
 110  120  1  1 1 0  0.003840  0.027210   0.04517   231   231   231    0 0  0.0000    0.00      0      0      0       0      0
  94  127  1  1 1 0  0.007770  0.041280   0.06391   197   197   197    0 0  0.0000    0.00      0      0      0       0      0
  92  104  1  1 1 0  0.004460  0.030410   0.04867   180   180   180    0 0  0.0000    0.00      0      0      0       0      0
 123  133  1  1 1 0  0.005890  0.035060   0.05235   267   267   267    0 0  0.0000    0.00      0      0      0       0      0
 114  124  1  1 1 0  0.003160  0.023780   0.03527   231   231   231    0 0  0.0000    0.00      0      0      0       0      0
  93  132  1  1 1 0  0.001840  0.012600   0.02240   231   231   231    0 0  0.0000    0.00      0      0      0       0      0
 103  121  1  1 1 0  0.001710  0.009610   0.01424   250   250   250    0 0  0.0000    0.00      0      0      0       0      0
  93  113  1  1 1 0  0.003410  0.024420   0.03997   317   317   317    0 0  0.0000    0.00      0      0      0       0      0
  92  133  1  1 1 0  0.001840  0.012600   0.02239   231   231   231    0 0  0.0000    0.00      0      0      0       0      0
 112   98  1  1 1 0  0.005700  0.041490   0.06617   341   341   341    0 0  0.0000    0.00      0      0      0       0      0
 134  141  1  1 1 0  0.004610  0.024920   0.03560   266   266   266    0 0  0.0000    0.00      0      0      0       0      0
 125  140  1  1 1 0  0.002150  0.013330   0.02211   250   250   250    0 0  0.0000    0.00      0      0      0       0      0
  85  115  1  1 1 0  0.000790  0.004880   0.00726   137   137   137    0 0  0.0000    0.00      0      0      0       0      0
  84  116  1  1 1 0  0.000790  0.004880   0.00724   137   137   137    0 0  0.0000    0.00      0      0      0       0      0
 144  108  1  1 1 0  0.002410  0.027820   0.77066  1154  1154  1154    0 0  0.0000    0.00      0      0      0       0      0
 145   97  1  1 1 0  0.002130  0.024320   0.67744  1240  1240  1240    0 0  0.0000    0.00      0      0      0       0      0
 130  138  1  1 1 0  0.000910  0.010400   0.28989   838   838   838    0 0  0.0000    0.00      0      0      0       0      0
 137  139  1  1 1 0  0.003120  0.035630   0.99107   831   831   831    0 0  0.0000    0.00      0      0      0       0      0
 145  130  1  1 1 0  0.000920  0.010510   0.29293   838   838   838    0 0  0.0000    0.00      0      0      0       0      0
 177  198  1  1 1 0  0.010390  0.089830   0.11422   375   375   375    0 0  0.0000    0.00      0      0      0       0      0
 178  199  1  1 1 0  0.010390  0.089830   0.11422   375   375   375    0 0  0.0000    0.00      0      0      0       0      0
 177  201  1  1 1 0  0.014550  0.081300   0.13279   267   267   267    0 0  0.0000    0.00      0      0      0       0      0
 178  202  1  1 1 0  0.014550  0.081300   0.13279   267   267   267    0 0  0.0000    0.00      0      0      0       0      0
 202  156  1  1 1 0  0.005190  0.039650   0.05836   317   317   317    0 0  0.0000    0.00      0      0      0       0      0
 166  156  1  1 1 0  0.000830  0.006450   0.00951   317   317   317    0 0  0.0000    0.00      0      0      0       0      0
 161  189  1  1 1 0  0.011050  0.081070   0.12824   341   341   341    0 0  0.0000    0.00      0      0      0       0      0
 177  157  1  1 1 0  0.005970  0.044730   0.06735   317   317   317    0 0  0.0000    0.00      0      0      0       0      0
 198  196  1  1 1 0  0.017360  0.109690   0.16268   287   287   287    0 0  0.0000    0.00      0      0      0       0      0
 199  173  1  1 1 0  0.009380  0.060930   0.08934   339   339   339    0 0  0.0000    0.00      0      0      0       0      0
 178  176  1  1 1 0  0.012460  0.091340   0.14349   400   400   400    0 0  0.0000    0.00      0      0      0       0      0
 158  154  1  1 1 0  0.005140  0.038260   0.05933   231   231   231    0 0  0.0000    0.00      0      0      0       0      0
 164  169  1  1 1 0  0.010620  0.078900   0.12085   317   317   317    0 0  0.0000    0.00      0      0      0       0      0
 205  175  1  1 1 0  0.007690  0.056900   0.08673   231   231   231    0 0  0.0000    0.00      0      0      0       0      0
 204  175  1  1 1 0  0.002250  0.016670   0.02541   286   286   286    0 0  0.0000    0.00      0      0      0       0      0
 168  196  1  1 1 0  0.018510  0.108800   0.14435   250   250   250    0 0  0.0000    0.00      0      0      0       0      0
 195  200  1  1 1 0  0.002360  0.014110   0.02031   229   229   229    0 0  0.0000    0.00      0      0      0       0      0
 161  195  1  1 1 0  0.003550  0.026070   0.04096   341   341   341    0 0  0.0000    0.00      0      0      0       0      0
 191  196  1  1 1 0  0.013000  0.075890   0.11484   267   267   267    0 0  0.0000    0.00      0      0      0       0      0
 174  195  1  1 1 0  0.009340  0.053900   0.08683   287   287   287    0 0  0.0000    0.00      0      0      0       0      0
 152  168  1  1 1 0  0.006980  0.037400   0.05463   314   314   314    0 0  0.0000    0.00      0      0      0       0      0
 153  167  1  1 1 0  0.004360  0.032020   0.05030   400   400   400    0 0  0.0000    0.00      0      0      0       0      0
 168  188  1  1 1 0  0.000600  0.003510   0.00555   341   341   341    0 0  0.0000    0.00      0      0      0       0      0
 167  189  1  1 1 0  0.000600  0.003510   0.00555   341   341   341    0 0  0.0000    0.00      0      0      0       0      0
 164  176  1  1 1 0  0.010580  0.077620   0.12203   231   231   231    0 0  0.0000    0.00      0      0      0       0      0
 169  182  1  1 1 0  0.004690  0.034860   0.05338   317   317   317    0 0  0.0000    0.00      0      0      0       0      0
 162  170  1  1 1 0  0.005680  0.040120   0.07033   317   317   317    0 0  0.0000    0.00      0      0      0       0      0
 162  193  1  1 1 0  0.001050  0.007330   0.01258   231   231   231    0 0  0.0000    0.00      0      0      0       0      0
 182  194  1  1 1 0  0.007440  0.053970   0.09307   231   231   231    0 0  0.0000    0.00      0      0      0       0      0
 155  202  1  1 1 0  0.002210  0.016180   0.02541   231   231   231    0 0  0.0000    0.00      0      0      0       0      0
 201  203  1  1 1 0  0.005250  0.038370   0.06052   231   231   231    0 0  0.0000    0.00      0      0      0       0      0
 198  206  1  1 1 0  0.002360  0.017460   0.02676   341   341   341    0 0  0.0000    0.00      0      0      0       0      0
 159  180  1  1 1 0  0.002740  0.027780   0.69846   717   717   717    0 0  0.0000    0.00      0      0      0       0      0
 160  186  1  1 1 0  0.001710  0.017410   0.45456   717   717   717    0 0  0.0000    0.00      0      0      0       0      0
 187  184  1  1 1 0  0.001360  0.015990   0.41965  1240  1240  1240    0 0  0.0000    0.00      0      0      0       0      0
 172  197  1  1 1 0  0.003730  0.043440   1.17200   831   831   831    0 0  0.0000    0.00      0      0      0       0      0
 222  214  1  1 1 0  0.027380  0.142540   0.20047   222   222   222    0 0  0.0000    0.00      0      0      0       0      0
 234  228  1  1 1 0  0.027090  0.159920   0.26125   197   197   197    0 0  0.0000    0.00      0      0      0       0      0
 239  215  1  1 1 0  0.019090  0.112770   0.16673   197   197   197    0 0  0.0000    0.00      0      0      0       0      0
...
-999
LOSS ZONES FOLLOWS   0 ITEMS
-99
INTERCHANGE DATA FOLLOWS      0 ITEMS
-9
TIE LINES FOLLOWS             0 ITEMS
-999
END OF DATA